*Heading
** Job name: Job-Pathdependent Model name: Model-1
*Preprint, echo=NO, model=NO, history=NO, contact=NO
**
** PARTS
**
*Part, name=Part-1
*Node
      1, 0.0507999994,           0., 0.00634999992
      2, 0.0507999994, 0.0507999994, 0.00634999992
      3, 0.0507999994, 0.0507999994, 0.0126999998
      4, 0.0507999994,           0., 0.0126999998
      5,           0., 0.0507999994, 0.00634999992
      6,           0., 0.0507999994, 0.0126999998
      7,           0.,           0., 0.0126999998
      8,           0.,           0., 0.00634999992
      9,           0., 0.0507999994, 0.0190500002
     10,           0.,           0., 0.0190500002
     11,           0.,           0., 0.0253999997
     12,           0., 0.0507999994, 0.0253999997
     13, 0.0507999994,           0., 0.0190500002
     14, 0.0507999994,           0., 0.0253999997
     15, 0.0507999994, 0.0507999994, 0.0253999997
     16, 0.0507999994, 0.0507999994, 0.0190500002
     17, 0.0507999994,           0.,           0.
     18, 0.0507999994, 0.0507999994,           0.
     19,           0.,           0.,           0.
     20,           0., 0.0507999994,           0.
** ... 11472 like lines cut
*Element, type=C3D8T
   1,  176,  837, 4581,  693,    1,   21,  549,   74
   2,  837,  838, 4582, 4581,   21,   22,  550,  549
   3,  838,  839, 4583, 4582,   22,   23,  551,  550
   4,  839,  840, 4584, 4583,   23,   24,  552,  551
   5,  840,  841, 4585, 4584,   24,   25,  553,  552
   6,  841,  842, 4586, 4585,   25,   26,  554,  553
   7,  842,  843, 4587, 4586,   26,   27,  555,  554
   8,  843,  844, 4588, 4587,   27,   28,  556,  555
   9,  844,  845, 4589, 4588,   28,   29,  557,  556
  10,  845,  846, 4590, 4589,   29,   30,  558,  557
  11,  846,  847, 4591, 4590,   30,   31,  559,  558
  12,  847,  848, 4592, 4591,   31,   32,  560,  559
  13,  848,  849, 4593, 4592,   32,   33,  561,  560
  14,  849,  850, 4594, 4593,   33,   34,  562,  561
  15,  850,  851, 4595, 4594,   34,   35,  563,  562
  16,  851,  852, 4596, 4595,   35,   36,  564,  563
  17,  852,  853, 4597, 4596,   36,   37,  565,  564
  18,  853,  854, 4598, 4597,   37,   38,  566,  565
  19,  854,  855, 4599, 4598,   38,   39,  567,  566
  20,  855,  856, 4600, 4599,   39,   40,  568,  567
** ... 9980 like lines cut
*Nset, nset=Set-1, generate
     1,  11492,      1
*Elset, elset=Set-1, generate
     1,  10000,      1
*Orientation, name=Ori-1
1., 0., 0., 0., 1., 0.
3, 90.
** Region: (Section-1:Set-1), (Material Orientation:Picked)
*Elset, elset=_I1, internal
     1,     2,     3,     4,     5,     6,     7,     8,     9,    10,    11,    12,    13,    14,    15,    16
    17,    18,    19,    20,    21,    22,    23,    24,    25,    26,    27,    28,    29,    30,    31,    32
    33,    34,    35,    36,    37,    38,    39,    40,    41,    42,    43,    44,    45,    46,    47,    48
    49,    50,    51,    52,    53,    54,    55,    56,    57,    58,    59,    60,    61,    62,    63,    64
    65,    66,    67,    68,    69,    70,    71,    72,    73,    74,    75,    76,    77,    78,    79,    80
    81,    82,    83,    84,    85,    86,    87,    88,    89,    90,    91,    92,    93,    94,    95,    96
    97,    98,    99,   100,   101,   102,   103,   104,   105,   106,   107,   108,   109,   110,   111,   112
   113,   114,   115,   116,   117,   118,   119,   120,   121,   122,   123,   124,   125,   126,   127,   128
   129,   130,   131,   132,   133,   134,   135,   136,   137,   138,   139,   140,   141,   142,   143,   144
   145,   146,   147,   148,   149,   150,   151,   152,   153,   154,   155,   156,   157,   158,   159,   160
   161,   162,   163,   164,   165,   166,   167,   168,   169,   170,   171,   172,   173,   174,   175,   176
   177,   178,   179,   180,   181,   182,   183,   184,   185,   186,   187,   188,   189,   190,   191,   192
   193,   194,   195,   196,   197,   198,   199,   200,   201,   202,   203,   204,   205,   206,   207,   208
   209,   210,   211,   212,   213,   214,   215,   216,   217,   218,   219,   220,   221,   222,   223,   224
   225,   226,   227,   228,   229,   230,   231,   232,   233,   234,   235,   236,   237,   238,   239,   240
   241,   242,   243,   244,   245,   246,   247,   248,   249,   250,   251,   252,   253,   254,   255,   256
   257,   258,   259,   260,   261,   262,   263,   264,   265,   266,   267,   268,   269,   270,   271,   272
   273,   274,   275,   276,   277,   278,   279,   280,   281,   282,   283,   284,   285,   286,   287,   288
   289,   290,   291,   292,   293,   294,   295,   296,   297,   298,   299,   300,   301,   302,   303,   304
   305,   306,   307,   308,   309,   310,   311,   312,   313,   314,   315,   316,   317,   318,   319,   320
** ... 293 like lines cut
** Section: Section-1
*Solid Section, elset=_I1, orientation=Ori-1, material=Material-1
,
*Orientation, name=Ori-2
1., 0., 0., 0., 1., 0.
1, 0.
** Region: (Section-1:Set-1), (Material Orientation:Picked)
*Elset, elset=_I2, internal, generate
 2501,  7500,     1
** Section: Section-1
*Solid Section, elset=_I2, orientation=Ori-2, material=Material-1
,
*End Part
**  
**
** ASSEMBLY
**
*Assembly, name=Assembly
**  
*Instance, name=Part-1-1, part=Part-1
*End Instance
**  
*Nset, nset=Set-1, instance=Part-1-1, generate
     1,  11492,      1
*Elset, elset=Set-1, instance=Part-1-1, generate
     1,  10000,      1
*Nset, nset=Set-2, instance=Part-1-1
    1,    2,    3,    4,    5,    6,    9,   11,   12,   13,   14,   15,   16,   17,   18,   19
   20,   21,   22,   23,   24,   25,   26,   27,   28,   29,   30,   31,   32,   33,   34,   35
   36,   37,   38,   39,   40,   41,   42,   43,   44,   45,   46,   47,   48,   49,   50,   51
   52,   53,   54,   55,   56,   57,   58,   59,   60,   61,   62,   63,   64,   65,   66,   67
   68,   69,   70,   71,   72,   73,   74,   99,  100,  101,  177,  178,  179,  180,  181,  182
  183,  184,  185,  186,  187,  188,  189,  190,  191,  192,  193,  194,  195,  196,  197,  198
  199,  200,  201,  202,  203,  204,  205,  206,  207,  208,  209,  210,  211,  212,  213,  214
  215,  216,  217,  218,  219,  220,  221,  222,  223,  224,  252,  253,  254,  255,  256,  257
  258,  259,  260,  261,  262,  263,  264,  265,  266,  267,  268,  269,  270,  271,  272,  273
  274,  275,  276,  277,  278,  279,  280,  281,  282,  283,  284,  285,  286,  287,  288,  289
  290,  291,  292,  293,  294,  295,  296,  297,  298,  299,  300,  301,  302,  303,  304,  305
  306,  307,  308,  309,  310,  311,  312,  313,  314,  315,  316,  317,  318,  319,  320,  321
  322,  323,  324,  325,  326,  327,  328,  329,  330,  331,  332,  333,  334,  335,  336,  337
  338,  339,  340,  341,  342,  343,  344,  345,  346,  347,  348,  349,  350,  351,  352,  353
  354,  355,  356,  357,  358,  359,  360,  361,  362,  363,  364,  365,  366,  367,  368,  369
  370,  371,  372,  373,  374,  375,  376,  377,  378,  379,  380,  381,  382,  383,  384,  385
  386,  387,  388,  389,  390,  391,  392,  393,  394,  395,  396,  397,  398,  399,  400,  401
  402,  403,  404,  429,  430,  431,  432,  433,  434,  435,  436,  437,  438,  439,  440,  441
  442,  443,  444,  445,  446,  447,  448,  449,  450,  451,  452,  453,  454,  455,  456,  457
  458,  462,  463,  464,  465,  466,  467,  468,  469,  470,  471,  472,  473,  474,  475,  476
** ... 113 like lines cut
*Elset, elset=Set-2, instance=Part-1-1
    1,    2,    3,    4,    5,    6,    7,    8,    9,   10,   11,   12,   13,   14,   15,   16
   17,   18,   19,   20,   21,   22,   23,   24,   25,   26,   27,   28,   29,   30,   31,   32
   33,   34,   35,   36,   37,   38,   39,   40,   41,   42,   43,   44,   45,   46,   47,   48
   49,   50,   51,   52,   53,   54,   55,   56,   57,   58,   59,   60,   61,   62,   63,   64
   65,   66,   67,   68,   69,   70,   71,   72,   73,   74,   75,   76,   77,   78,   79,   80
   81,   82,   83,   84,   85,   86,   87,   88,   89,   90,   91,   92,   93,   94,   95,   96
   97,   98,   99,  100,  125,  150,  175,  200,  225,  250,  275,  300,  325,  350,  375,  400
  425,  450,  475,  500,  525,  550,  575,  600,  625,  650,  675,  700,  725,  750,  775,  800
  825,  850,  875,  900,  925,  950,  975, 1000, 1025, 1050, 1075, 1100, 1125, 1150, 1175, 1200
 1225, 1250, 1275, 1300, 1325, 1350, 1375, 1400, 1425, 1450, 1475, 1500, 1525, 1550, 1575, 1600
 1625, 1650, 1675, 1700, 1725, 1750, 1775, 1800, 1825, 1850, 1875, 1900, 1925, 1950, 1975, 2000
 2025, 2050, 2075, 2100, 2125, 2150, 2175, 2200, 2225, 2250, 2275, 2300, 2325, 2350, 2375, 2400
 2425, 2450, 2475, 2500, 2501, 2526, 2551, 2576, 2577, 2578, 2579, 2580, 2581, 2582, 2583, 2584
 2585, 2586, 2587, 2588, 2589, 2590, 2591, 2592, 2593, 2594, 2595, 2596, 2597, 2598, 2599, 2600
 2601, 2626, 2651, 2676, 2677, 2678, 2679, 2680, 2681, 2682, 2683, 2684, 2685, 2686, 2687, 2688
 2689, 2690, 2691, 2692, 2693, 2694, 2695, 2696, 2697, 2698, 2699, 2700, 2701, 2726, 2751, 2776
 2777, 2778, 2779, 2780, 2781, 2782, 2783, 2784, 2785, 2786, 2787, 2788, 2789, 2790, 2791, 2792
 2793, 2794, 2795, 2796, 2797, 2798, 2799, 2800, 2801, 2826, 2851, 2876, 2877, 2878, 2879, 2880
 2881, 2882, 2883, 2884, 2885, 2886, 2887, 2888, 2889, 2890, 2891, 2892, 2893, 2894, 2895, 2896
 2897, 2898, 2899, 2900, 2901, 2926, 2951, 2976, 2977, 2978, 2979, 2980, 2981, 2982, 2983, 2984
** ... 101 like lines cut
*Nset, nset=Set-3, instance=Part-1-1
   11,   12,   14,   15,  252,  253,  254,  255,  256,  257,  258,  259,  260,  261,  262,  263
  264,  265,  266,  267,  268,  269,  270,  271,  272,  273,  274,  275,  306,  307,  308,  309
  310,  311,  312,  313,  314,  315,  316,  317,  318,  319,  320,  321,  322,  323,  324,  325
  326,  327,  328,  329,  333,  334,  335,  336,  337,  338,  339,  340,  341,  342,  343,  344
  345,  346,  347,  348,  349,  350,  351,  352,  353,  354,  355,  356,  381,  382,  383,  384
  385,  386,  387,  388,  389,  390,  391,  392,  393,  394,  395,  396,  397,  398,  399,  400
  401,  402,  403,  404, 2853, 2854, 2855, 2856, 2857, 2858, 2859, 2860, 2861, 2862, 2863, 2864
 2865, 2866, 2867, 2868, 2869, 2870, 2871, 2872, 2873, 2874, 2875, 2876, 2877, 2878, 2879, 2880
 2881, 2882, 2883, 2884, 2885, 2886, 2887, 2888, 2889, 2890, 2891, 2892, 2893, 2894, 2895, 2896
 2897, 2898, 2899, 2900, 2901, 2902, 2903, 2904, 2905, 2906, 2907, 2908, 2909, 2910, 2911, 2912
 2913, 2914, 2915, 2916, 2917, 2918, 2919, 2920, 2921, 2922, 2923, 2924, 2925, 2926, 2927, 2928
 2929, 2930, 2931, 2932, 2933, 2934, 2935, 2936, 2937, 2938, 2939, 2940, 2941, 2942, 2943, 2944
 2945, 2946, 2947, 2948, 2949, 2950, 2951, 2952, 2953, 2954, 2955, 2956, 2957, 2958, 2959, 2960
 2961, 2962, 2963, 2964, 2965, 2966, 2967, 2968, 2969, 2970, 2971, 2972, 2973, 2974, 2975, 2976
 2977, 2978, 2979, 2980, 2981, 2982, 2983, 2984, 2985, 2986, 2987, 2988, 2989, 2990, 2991, 2992
 2993, 2994, 2995, 2996, 2997, 2998, 2999, 3000, 3001, 3002, 3003, 3004, 3005, 3006, 3007, 3008
 3009, 3010, 3011, 3012, 3013, 3014, 3015, 3016, 3017, 3018, 3019, 3020, 3021, 3022, 3023, 3024
 3025, 3026, 3027, 3028, 3029, 3030, 3031, 3032, 3033, 3034, 3035, 3036, 3037, 3038, 3039, 3040
 3041, 3042, 3043, 3044, 3045, 3046, 3047, 3048, 3049, 3050, 3051, 3052, 3053, 3054, 3055, 3056
 3057, 3058, 3059, 3060, 3061, 3062, 3063, 3064, 3065, 3066, 3067, 3068, 3069, 3070, 3071, 3072
** ... 23 like lines cut
*Elset, elset=Set-3, instance=Part-1-1
 2576, 2577, 2578, 2579, 2580, 2581, 2582, 2583, 2584, 2585, 2586, 2587, 2588, 2589, 2590, 2591
 2592, 2593, 2594, 2595, 2596, 2597, 2598, 2599, 2600, 2676, 2677, 2678, 2679, 2680, 2681, 2682
 2683, 2684, 2685, 2686, 2687, 2688, 2689, 2690, 2691, 2692, 2693, 2694, 2695, 2696, 2697, 2698
 2699, 2700, 2776, 2777, 2778, 2779, 2780, 2781, 2782, 2783, 2784, 2785, 2786, 2787, 2788, 2789
 2790, 2791, 2792, 2793, 2794, 2795, 2796, 2797, 2798, 2799, 2800, 2876, 2877, 2878, 2879, 2880
 2881, 2882, 2883, 2884, 2885, 2886, 2887, 2888, 2889, 2890, 2891, 2892, 2893, 2894, 2895, 2896
 2897, 2898, 2899, 2900, 2976, 2977, 2978, 2979, 2980, 2981, 2982, 2983, 2984, 2985, 2986, 2987
 2988, 2989, 2990, 2991, 2992, 2993, 2994, 2995, 2996, 2997, 2998, 2999, 3000, 3076, 3077, 3078
 3079, 3080, 3081, 3082, 3083, 3084, 3085, 3086, 3087, 3088, 3089, 3090, 3091, 3092, 3093, 3094
 3095, 3096, 3097, 3098, 3099, 3100, 3176, 3177, 3178, 3179, 3180, 3181, 3182, 3183, 3184, 3185
 3186, 3187, 3188, 3189, 3190, 3191, 3192, 3193, 3194, 3195, 3196, 3197, 3198, 3199, 3200, 3276
 3277, 3278, 3279, 3280, 3281, 3282, 3283, 3284, 3285, 3286, 3287, 3288, 3289, 3290, 3291, 3292
 3293, 3294, 3295, 3296, 3297, 3298, 3299, 3300, 3376, 3377, 3378, 3379, 3380, 3381, 3382, 3383
 3384, 3385, 3386, 3387, 3388, 3389, 3390, 3391, 3392, 3393, 3394, 3395, 3396, 3397, 3398, 3399
 3400, 3476, 3477, 3478, 3479, 3480, 3481, 3482, 3483, 3484, 3485, 3486, 3487, 3488, 3489, 3490
 3491, 3492, 3493, 3494, 3495, 3496, 3497, 3498, 3499, 3500, 3576, 3577, 3578, 3579, 3580, 3581
 3582, 3583, 3584, 3585, 3586, 3587, 3588, 3589, 3590, 3591, 3592, 3593, 3594, 3595, 3596, 3597
 3598, 3599, 3600, 3676, 3677, 3678, 3679, 3680, 3681, 3682, 3683, 3684, 3685, 3686, 3687, 3688
 3689, 3690, 3691, 3692, 3693, 3694, 3695, 3696, 3697, 3698, 3699, 3700, 3776, 3777, 3778, 3779
 3780, 3781, 3782, 3783, 3784, 3785, 3786, 3787, 3788, 3789, 3790, 3791, 3792, 3793, 3794, 3795
** ... 20 like lines cut
*Nset, nset=Set-4, instance=Part-1-1
    1,    4,    7,    8,   10,   11,   13,   14,   17,   19,   72,   73,   74,  126,  127,  128
  129,  130,  131,  132,  133,  134,  135,  136,  137,  138,  139,  140,  141,  142,  143,  144
  145,  146,  147,  148,  149,  150,  151,  152,  153,  154,  155,  156,  157,  158,  159,  160
  161,  162,  163,  164,  165,  166,  167,  168,  169,  170,  171,  172,  173,  174,  175,  176
  249,  250,  251,  303,  304,  305,  381,  382,  383,  384,  385,  386,  387,  388,  389,  390
  391,  392,  393,  394,  395,  396,  397,  398,  399,  400,  401,  402,  403,  404,  405,  406
  407,  408,  409,  410,  411,  412,  413,  414,  415,  416,  417,  418,  419,  420,  421,  422
  423,  424,  425,  426,  427,  428,  429,  430,  431,  459,  460,  461,  513,  514,  515,  516
  517,  518,  519,  520,  521,  522,  523,  524,  525,  526,  527,  528,  529,  530,  531,  532
  533,  534,  535,  536,  537,  538,  539,  543,  544,  545,  693,  694,  695,  696,  697,  698
  699,  700,  701,  702,  703,  704,  705,  706,  707,  708,  709,  710,  711,  712,  713,  714
  715,  716,  717,  718,  719,  720,  721,  722,  723,  724,  725,  726,  727,  728,  729,  730
  731,  732,  733,  734,  735,  736,  737,  738,  739,  740,  741,  742,  743,  744,  745,  746
  747,  748,  749,  750,  751,  752,  753,  754,  755,  756,  757,  758,  759,  760,  761,  762
  763,  764, 2205, 2206, 2207, 2208, 2209, 2210, 2211, 2212, 2213, 2214, 2215, 2216, 2217, 2218
 2219, 2220, 2221, 2222, 2223, 2224, 2225, 2226, 2227, 2228, 2229, 2230, 2231, 2232, 2233, 2234
 2235, 2236, 2237, 2238, 2239, 2240, 2241, 2242, 2243, 2244, 2245, 2246, 2247, 2248, 2249, 2250
 2251, 2252, 2253, 2254, 2255, 2256, 2257, 2258, 2259, 2260, 2261, 2262, 2263, 2264, 2265, 2266
 2267, 2268, 2269, 2270, 2271, 2272, 2273, 2274, 2275, 2276, 3645, 3646, 3647, 3648, 3649, 3650
 3651, 3652, 3653, 3654, 3655, 3656, 3657, 3658, 3659, 3660, 3661, 3662, 3663, 3664, 3665, 3666
** ... 8 like lines cut
*Elset, elset=Set-4, instance=Part-1-1
     1,    26,    51,    76,   101,   126,   151,   176,   201,   226,   251,   276,   301,   326,   351,   376
   401,   426,   451,   476,   501,   526,   551,   576,   601,   626,   651,   676,   701,   726,   751,   776
   801,   826,   851,   876,   901,   926,   951,   976,  1001,  1026,  1051,  1076,  1101,  1126,  1151,  1176
  1201,  1226,  1251,  1276,  1301,  1326,  1351,  1376,  1401,  1426,  1451,  1476,  1501,  1526,  1551,  1576
  1601,  1626,  1651,  1676,  1701,  1726,  1751,  1776,  1801,  1826,  1851,  1876,  1901,  1926,  1951,  1976
  2001,  2026,  2051,  2076,  2101,  2126,  2151,  2176,  2201,  2226,  2251,  2276,  2301,  2326,  2351,  2376
  2401,  2426,  2451,  2476,  2525,  2550,  2575,  2600,  2625,  2650,  2675,  2700,  2725,  2750,  2775,  2800
  2825,  2850,  2875,  2900,  2925,  2950,  2975,  3000,  3025,  3050,  3075,  3100,  3125,  3150,  3175,  3200
  3225,  3250,  3275,  3300,  3325,  3350,  3375,  3400,  3425,  3450,  3475,  3500,  3525,  3550,  3575,  3600
  3625,  3650,  3675,  3700,  3725,  3750,  3775,  3800,  3825,  3850,  3875,  3900,  3925,  3950,  3975,  4000
  4025,  4050,  4075,  4100,  4125,  4150,  4175,  4200,  4225,  4250,  4275,  4300,  4325,  4350,  4375,  4400
  4425,  4450,  4475,  4500,  4525,  4550,  4575,  4600,  4625,  4650,  4675,  4700,  4725,  4750,  4775,  4800
  4825,  4850,  4875,  4900,  4925,  4950,  4975,  5000,  5025,  5050,  5075,  5100,  5125,  5150,  5175,  5200
  5225,  5250,  5275,  5300,  5325,  5350,  5375,  5400,  5425,  5450,  5475,  5500,  5525,  5550,  5575,  5600
  5625,  5650,  5675,  5700,  5725,  5750,  5775,  5800,  5825,  5850,  5875,  5900,  5925,  5950,  5975,  6000
  6025,  6050,  6075,  6100,  6125,  6150,  6175,  6200,  6225,  6250,  6275,  6300,  6325,  6350,  6375,  6400
  6425,  6450,  6475,  6500,  6525,  6550,  6575,  6600,  6625,  6650,  6675,  6700,  6725,  6750,  6775,  6800
  6825,  6850,  6875,  6900,  6925,  6950,  6975,  7000,  7025,  7050,  7075,  7100,  7125,  7150,  7175,  7200
  7225,  7250,  7275,  7300,  7325,  7350,  7375,  7400,  7425,  7450,  7475,  7500,  7525,  7550,  7575,  7600
  7625,  7650,  7675,  7700,  7725,  7750,  7775,  7800,  7825,  7850,  7875,  7900,  7925,  7950,  7975,  8000
** ... 5 like lines cut
*Nset, nset=Set-5, instance=Part-1-1
    5,    6,    7,    8,    9,   10,   11,   12,   19,   20,   75,   76,   77,   78,   79,   80
   81,   82,   83,   84,   85,   86,   87,   88,   89,   90,   91,   92,   93,   94,   95,   96
   97,   98,   99,  100,  101,  102,  103,  104,  105,  106,  107,  108,  109,  110,  111,  112
  113,  114,  115,  116,  117,  118,  119,  120,  121,  122,  123,  124,  125,  126,  127,  128
  225,  226,  227,  228,  229,  230,  231,  232,  233,  234,  235,  236,  237,  238,  239,  240
  241,  242,  243,  244,  245,  246,  247,  248,  249,  250,  251,  252,  253,  254,  255,  256
  257,  258,  259,  260,  261,  262,  263,  264,  265,  266,  267,  268,  269,  270,  271,  272
  273,  274,  275,  276,  277,  278,  459,  460,  461,  462,  463,  464,  465,  466,  467,  468
  469,  470,  471,  472,  473,  474,  475,  476,  477,  478,  479,  480,  481,  482,  483,  484
  485,  486,  487,  488,  543,  544,  545,  546,  547,  548,  621,  622,  623,  624,  625,  626
  627,  628,  629,  630,  631,  632,  633,  634,  635,  636,  637,  638,  639,  640,  641,  642
  643,  644,  645,  646,  647,  648,  649,  650,  651,  652,  653,  654,  655,  656,  657,  658
  659,  660,  661,  662,  663,  664,  665,  666,  667,  668,  669,  670,  671,  672,  673,  674
  675,  676,  677,  678,  679,  680,  681,  682,  683,  684,  685,  686,  687,  688,  689,  690
  691,  692, 1989, 1990, 1991, 1992, 1993, 1994, 1995, 1996, 1997, 1998, 1999, 2000, 2001, 2002
 2003, 2004, 2005, 2006, 2007, 2008, 2009, 2010, 2011, 2012, 2013, 2014, 2015, 2016, 2017, 2018
 2019, 2020, 2021, 2022, 2023, 2024, 2025, 2026, 2027, 2028, 2029, 2030, 2031, 2032, 2033, 2034
 2035, 2036, 2037, 2038, 2039, 2040, 2041, 2042, 2043, 2044, 2045, 2046, 2047, 2048, 2049, 2050
 2051, 2052, 2053, 2054, 2055, 2056, 2057, 2058, 2059, 2060, 3501, 3502, 3503, 3504, 3505, 3506
 3507, 3508, 3509, 3510, 3511, 3512, 3513, 3514, 3515, 3516, 3517, 3518, 3519, 3520, 3521, 3522
** ... 8 like lines cut
*Elset, elset=Set-5, instance=Part-1-1
  2401,  2402,  2403,  2404,  2405,  2406,  2407,  2408,  2409,  2410,  2411,  2412,  2413,  2414,  2415,  2416
  2417,  2418,  2419,  2420,  2421,  2422,  2423,  2424,  2425,  2426,  2427,  2428,  2429,  2430,  2431,  2432
  2433,  2434,  2435,  2436,  2437,  2438,  2439,  2440,  2441,  2442,  2443,  2444,  2445,  2446,  2447,  2448
  2449,  2450,  2451,  2452,  2453,  2454,  2455,  2456,  2457,  2458,  2459,  2460,  2461,  2462,  2463,  2464
  2465,  2466,  2467,  2468,  2469,  2470,  2471,  2472,  2473,  2474,  2475,  2476,  2477,  2478,  2479,  2480
  2481,  2482,  2483,  2484,  2485,  2486,  2487,  2488,  2489,  2490,  2491,  2492,  2493,  2494,  2495,  2496
  2497,  2498,  2499,  2500,  2501,  2502,  2503,  2504,  2505,  2506,  2507,  2508,  2509,  2510,  2511,  2512
  2513,  2514,  2515,  2516,  2517,  2518,  2519,  2520,  2521,  2522,  2523,  2524,  2525,  2526,  2527,  2528
  2529,  2530,  2531,  2532,  2533,  2534,  2535,  2536,  2537,  2538,  2539,  2540,  2541,  2542,  2543,  2544
  2545,  2546,  2547,  2548,  2549,  2550,  2551,  2552,  2553,  2554,  2555,  2556,  2557,  2558,  2559,  2560
  2561,  2562,  2563,  2564,  2565,  2566,  2567,  2568,  2569,  2570,  2571,  2572,  2573,  2574,  2575,  2576
  2577,  2578,  2579,  2580,  2581,  2582,  2583,  2584,  2585,  2586,  2587,  2588,  2589,  2590,  2591,  2592
  2593,  2594,  2595,  2596,  2597,  2598,  2599,  2600,  7401,  7402,  7403,  7404,  7405,  7406,  7407,  7408
  7409,  7410,  7411,  7412,  7413,  7414,  7415,  7416,  7417,  7418,  7419,  7420,  7421,  7422,  7423,  7424
  7425,  7426,  7427,  7428,  7429,  7430,  7431,  7432,  7433,  7434,  7435,  7436,  7437,  7438,  7439,  7440
  7441,  7442,  7443,  7444,  7445,  7446,  7447,  7448,  7449,  7450,  7451,  7452,  7453,  7454,  7455,  7456
  7457,  7458,  7459,  7460,  7461,  7462,  7463,  7464,  7465,  7466,  7467,  7468,  7469,  7470,  7471,  7472
  7473,  7474,  7475,  7476,  7477,  7478,  7479,  7480,  7481,  7482,  7483,  7484,  7485,  7486,  7487,  7488
  7489,  7490,  7491,  7492,  7493,  7494,  7495,  7496,  7497,  7498,  7499,  7500,  9901,  9902,  9903,  9904
  9905,  9906,  9907,  9908,  9909,  9910,  9911,  9912,  9913,  9914,  9915,  9916,  9917,  9918,  9919,  9920
** ... 5 like lines cut
*Elset, elset=_Surf-1_S6, internal, instance=Part-1-1, generate
 2501,  9976,    25
*Elset, elset=_Surf-1_S2, internal, instance=Part-1-1
    1,    2,    3,    4,    5,    6,    7,    8,    9,   10,   11,   12,   13,   14,   15,   16
   17,   18,   19,   20,   21,   22,   23,   24,   25,   26,   27,   28,   29,   30,   31,   32
   33,   34,   35,   36,   37,   38,   39,   40,   41,   42,   43,   44,   45,   46,   47,   48
   49,   50,   51,   52,   53,   54,   55,   56,   57,   58,   59,   60,   61,   62,   63,   64
   65,   66,   67,   68,   69,   70,   71,   72,   73,   74,   75,   76,   77,   78,   79,   80
   81,   82,   83,   84,   85,   86,   87,   88,   89,   90,   91,   92,   93,   94,   95,   96
   97,   98,   99,  100, 5001, 5002, 5003, 5004, 5005, 5006, 5007, 5008, 5009, 5010, 5011, 5012
 5013, 5014, 5015, 5016, 5017, 5018, 5019, 5020, 5021, 5022, 5023, 5024, 5025, 5026, 5027, 5028
 5029, 5030, 5031, 5032, 5033, 5034, 5035, 5036, 5037, 5038, 5039, 5040, 5041, 5042, 5043, 5044
 5045, 5046, 5047, 5048, 5049, 5050, 5051, 5052, 5053, 5054, 5055, 5056, 5057, 5058, 5059, 5060
 5061, 5062, 5063, 5064, 5065, 5066, 5067, 5068, 5069, 5070, 5071, 5072, 5073, 5074, 5075, 5076
 5077, 5078, 5079, 5080, 5081, 5082, 5083, 5084, 5085, 5086, 5087, 5088, 5089, 5090, 5091, 5092
 5093, 5094, 5095, 5096, 5097, 5098, 5099, 5100, 7501, 7502, 7503, 7504, 7505, 7506, 7507, 7508
 7509, 7510, 7511, 7512, 7513, 7514, 7515, 7516, 7517, 7518, 7519, 7520, 7521, 7522, 7523, 7524
 7525, 7526, 7527, 7528, 7529, 7530, 7531, 7532, 7533, 7534, 7535, 7536, 7537, 7538, 7539, 7540
 7541, 7542, 7543, 7544, 7545, 7546, 7547, 7548, 7549, 7550, 7551, 7552, 7553, 7554, 7555, 7556
 7557, 7558, 7559, 7560, 7561, 7562, 7563, 7564, 7565, 7566, 7567, 7568, 7569, 7570, 7571, 7572
 7573, 7574, 7575, 7576, 7577, 7578, 7579, 7580, 7581, 7582, 7583, 7584, 7585, 7586, 7587, 7588
 7589, 7590, 7591, 7592, 7593, 7594, 7595, 7596, 7597, 7598, 7599, 7600
*Elset, elset=_Surf-1_S1, internal, instance=Part-1-1, generate
 4901,  5000,     1
*Elset, elset=_Surf-1_S4, internal, instance=Part-1-1, generate
   25,  2500,    25
*Elset, elset=_Surf-1_S5, internal, instance=Part-1-1
 5076, 5077, 5078, 5079, 5080, 5081, 5082, 5083, 5084, 5085, 5086, 5087, 5088, 5089, 5090, 5091
 5092, 5093, 5094, 5095, 5096, 5097, 5098, 5099, 5100, 5176, 5177, 5178, 5179, 5180, 5181, 5182
 5183, 5184, 5185, 5186, 5187, 5188, 5189, 5190, 5191, 5192, 5193, 5194, 5195, 5196, 5197, 5198
 5199, 5200, 5276, 5277, 5278, 5279, 5280, 5281, 5282, 5283, 5284, 5285, 5286, 5287, 5288, 5289
 5290, 5291, 5292, 5293, 5294, 5295, 5296, 5297, 5298, 5299, 5300, 5376, 5377, 5378, 5379, 5380
 5381, 5382, 5383, 5384, 5385, 5386, 5387, 5388, 5389, 5390, 5391, 5392, 5393, 5394, 5395, 5396
 5397, 5398, 5399, 5400, 5476, 5477, 5478, 5479, 5480, 5481, 5482, 5483, 5484, 5485, 5486, 5487
 5488, 5489, 5490, 5491, 5492, 5493, 5494, 5495, 5496, 5497, 5498, 5499, 5500, 5576, 5577, 5578
 5579, 5580, 5581, 5582, 5583, 5584, 5585, 5586, 5587, 5588, 5589, 5590, 5591, 5592, 5593, 5594
 5595, 5596, 5597, 5598, 5599, 5600, 5676, 5677, 5678, 5679, 5680, 5681, 5682, 5683, 5684, 5685
 5686, 5687, 5688, 5689, 5690, 5691, 5692, 5693, 5694, 5695, 5696, 5697, 5698, 5699, 5700, 5776
 5777, 5778, 5779, 5780, 5781, 5782, 5783, 5784, 5785, 5786, 5787, 5788, 5789, 5790, 5791, 5792
 5793, 5794, 5795, 5796, 5797, 5798, 5799, 5800, 5876, 5877, 5878, 5879, 5880, 5881, 5882, 5883
 5884, 5885, 5886, 5887, 5888, 5889, 5890, 5891, 5892, 5893, 5894, 5895, 5896, 5897, 5898, 5899
 5900, 5976, 5977, 5978, 5979, 5980, 5981, 5982, 5983, 5984, 5985, 5986, 5987, 5988, 5989, 5990
 5991, 5992, 5993, 5994, 5995, 5996, 5997, 5998, 5999, 6000, 6076, 6077, 6078, 6079, 6080, 6081
 6082, 6083, 6084, 6085, 6086, 6087, 6088, 6089, 6090, 6091, 6092, 6093, 6094, 6095, 6096, 6097
 6098, 6099, 6100, 6176, 6177, 6178, 6179, 6180, 6181, 6182, 6183, 6184, 6185, 6186, 6187, 6188
 6189, 6190, 6191, 6192, 6193, 6194, 6195, 6196, 6197, 6198, 6199, 6200, 6276, 6277, 6278, 6279
 6280, 6281, 6282, 6283, 6284, 6285, 6286, 6287, 6288, 6289, 6290, 6291, 6292, 6293, 6294, 6295
** ... 20 like lines cut
*Surface, type=ELEMENT, name=Surf-1
_Surf-1_S6, S6
_Surf-1_S2, S2
_Surf-1_S4, S4
_Surf-1_S1, S1
_Surf-1_S5, S5
*End Assembly
** 
** MATERIALS
** 
*Material, name=Material-1
*Conductivity, type=ORTHO
 5.43, 0.4135, 0.4135
*Density, dependencies=1
1578., ,-1000.
1578., , 1000.
*Depvar
      9,
*Expansion, type=ORTHO, user
*Heat Generation
*Specific Heat
862.,
*User Defined Field
*User Material, constants=1
0.,
*Time Points, name=TimePoints-1
2184., 5784., 7248., 14448.
** 
** BOUNDARY CONDITIONS
** 
** Name: BC-2 Type: Displacement/Rotation
*Boundary
Set-3, 3, 3
** Name: BC-3 Type: Symmetry/Antisymmetry/Encastre
*Boundary
Set-4, YSYMM
** Name: BC-4 Type: Symmetry/Antisymmetry/Encastre
*Boundary
Set-5, XSYMM
** 
** PREDEFINED FIELDS
** 
** Name: Predefined Field-1   Type: Temperature
*Initial Conditions, type=TEMPERATURE
Set-1, 298.15
** ----------------------------------------------------------------
** 
** STEP: Step-1
** 
*Step, name=Step-1, nlgeom=NO, inc=100000000
*Coupled Temperature-displacement, creep=none, deltmx=50.
100., 18096., 5e-05, 200.
** 
** BOUNDARY CONDITIONS
** 
** Name: BC-1 Type: Temperature
*Boundary, user
Set-2, 11, 11, 1.
** 
** OUTPUT REQUESTS
** 
*Restart, write, frequency=0
** 
** FIELD OUTPUT: F-Output-1
** 
*Output, field
*Node Output
NT, U
*Element Output, directions=YES
E, EE, S, SDV, THE
** 
** FIELD OUTPUT: F-Output-1-Copy
** 
*Output, field, time points=TimePoints-1
*Node Output
NT, U
*Element Output, directions=YES
E, EE, S, SDV, THE
** 
** HISTORY OUTPUT: H-Output-1
** 
*Output, history, variable=PRESELECT
*End Step
